# OC6 input file, prepared by MF5to6 on 4/13/2026 at 10:12:18.

BEGIN Options
  BUDGET FILEOUT  CHILD_mf6_flowc
  HEAD FILEOUT  CHILD_mf6_headc
  HEAD PRINT_FORMAT  COLUMNS 10  WIDTH 11  DIGITS 4  GENERAL             
END Options

BEGIN PERIOD 1
  SAVE BUDGET ALL
  PRINT BUDGET ALL
  SAVE HEAD ALL
END PERIOD
