# NPF6 input file, prepared by MF5to6 on 4/13/2026 at 10:12:18.

BEGIN Options
  PERCHED
  VARIABLECV  DEWATERED
  SAVE_FLOWS  CHILD_mf6_flowc
END Options

BEGIN GRIDDATA
  Icelltype LAYERED
    CONSTANT  0
  K  LAYERED
    INTERNAL  FACTOR  1.0  IPRN   12
  0.1611000E-02  0.1611000E-02  0.1611000E-02  0.1611000E-02  0.1611000E-02  0.1611000E-02  0.1611000E-02  0.1611000E-02  0.1611000E-02  0.1611000E-02
  0.1611000E-02  0.1611000E-02  0.1611000E-02  0.1611000E-02  0.1611000E-02  0.1611000E-02  0.1611000E-02  0.1611000E-02  0.1611000E-02  0.1611000E-02
  0.1611000E-02  0.1611000E-02  0.1611000E-02  0.1611000E-02  0.1611000E-02  0.1611000E-02  0.1611000E-02  0.1611000E-02  0.1611000E-02  0.1611000E-02
  0.1611000E-02  0.1611000E-02  0.1611000E-02  0.1611000E-02  0.1611000E-02  0.1611000E-02  0.1611000E-02  0.1611000E-02  0.1611000E-02  0.1611000E-02
  0.1611000E-02  0.1611000E-02  0.1611000E-02  0.1611000E-02  0.1611000E-02  0.1611000E-02  0.1611000E-02  0.1611000E-02  0.1611000E-02  0.1611000E-02
  0.1611000E-02  0.1611000E-02  0.1611000E-02  0.1611000E-02  0.1611000E-02  0.1611000E-02  0.1611000E-02  0.1611000E-02  0.1611000E-02  0.1611000E-02
  0.1611000E-02  0.1611000E-02  0.1611000E-02  0.1611000E-02  0.1611000E-02  0.1611000E-02  0.1611000E-02  0.1611000E-02  0.1611000E-02  0.1611000E-02
  0.1611000E-02  0.1611000E-02  0.1611000E-02  0.1611000E-02  0.1611000E-02  0.1611000E-02  0.1611000E-02  0.1611000E-02  0.1611000E-02  0.1611000E-02
  0.1611000E-02  0.1611000E-02  0.1611000E-02  0.1611000E-02  0.1611000E-02  0.1611000E-02  0.1611000E-02  0.1611000E-02  0.1611000E-02  0.1611000E-02
  0.1611000E-02  0.1611000E-02  0.1611000E-02  0.1611000E-02  0.1611000E-02  0.1611000E-02  0.1611000E-02  0.1611000E-02  0.1611000E-02  0.1611000E-02
  0.1611000E-02  0.1611000E-02  0.1611000E-02  0.1611000E-02  0.1611000E-02  0.1611000E-02  0.1611000E-02  0.1611000E-02  0.1611000E-02  0.1611000E-02
  0.1611000E-02  0.1611000E-02  0.1611000E-02  0.1611000E-02  0.1611000E-02  0.1611000E-02  0.1611000E-02  0.1611000E-02  0.1611000E-02  0.1611000E-02
  0.1611000E-02  0.1611000E-02  0.1611000E-02  0.1611000E-02  0.1611000E-02  0.1611000E-02  0.1611000E-02  0.1611000E-02  0.1611000E-02  0.1611000E-02
  0.1611000E-02  0.1611000E-02  0.1611000E-02  0.1611000E-02  0.1611000E-02  0.1611000E-02  0.1611000E-02  0.1611000E-02  0.1611000E-02  0.1611000E-02
  0.1611000E-02  0.1611000E-02  0.1611000E-02  0.1611000E-02  0.1611000E-02  0.1611000E-02  0.1611000E-02  0.1611000E-02  0.1611000E-02  0.1611000E-02
  0.1611000E-02  0.1611000E-02  0.1611000E-02  0.1611000E-02
  0.1611000E-02  0.1611000E-02  0.1611000E-02  0.1611000E-02  0.1611000E-02  0.1611000E-02  0.1611000E-02  0.1611000E-02  0.1611000E-02  0.1611000E-02
  0.1611000E-02  0.1611000E-02  0.1611000E-02  0.1611000E-02  0.1611000E-02  0.1611000E-02  0.1611000E-02  0.1611000E-02  0.1611000E-02  0.1611000E-02
  0.1611000E-02  0.1611000E-02  0.1611000E-02  0.1611000E-02  0.1611000E-02  0.1611000E-02  0.1611000E-02  0.1611000E-02  0.1611000E-02  0.1611000E-02
  0.1611000E-02  0.1611000E-02  0.1611000E-02  0.1611000E-02  0.1611000E-02  0.1611000E-02  0.1611000E-02  0.1611000E-02  0.1611000E-02  0.1611000E-02
  0.1611000E-02  0.1611000E-02  0.1611000E-02  0.1611000E-02  0.1611000E-02  0.1611000E-02  0.1611000E-02  0.1611000E-02  0.1611000E-02  0.1611000E-02
  0.1611000E-02  0.1611000E-02  0.1611000E-02  0.1611000E-02  0.1611000E-02  0.1611000E-02  0.1611000E-02  0.1611000E-02  0.1611000E-02  0.1611000E-02
  0.1611000E-02  0.1611000E-02  0.1611000E-02  0.1611000E-02  0.1611000E-02  0.1611000E-02  0.1611000E-02  0.1611000E-02  0.1611000E-02  0.1611000E-02
  0.1611000E-02  0.1611000E-02  0.1611000E-02  0.1611000E-02  0.1611000E-02  0.1611000E-02  0.1611000E-02  0.1611000E-02  0.1611000E-02  0.1611000E-02
  0.1611000E-02  0.1611000E-02  0.1611000E-02  0.1611000E-02  0.1611000E-02  0.1611000E-02  0.1611000E-02  0.1611000E-02  0.1611000E-02  0.1611000E-02
  0.1611000E-02  0.1611000E-02  0.1611000E-02  0.1611000E-02  0.1611000E-02  0.1611000E-02  0.1611000E-02  0.1611000E-02  0.1611000E-02  0.1611000E-02
  0.1611000E-02  0.1611000E-02  0.1611000E-02  0.1611000E-02  0.1611000E-02  0.1611000E-02  0.1611000E-02  0.1611000E-02  0.1611000E-02  0.1611000E-02
  0.1611000E-02  0.1611000E-02  0.1611000E-02  0.1611000E-02  0.1611000E-02  0.1611000E-02  0.1611000E-02  0.1611000E-02  0.1611000E-02  0.1611000E-02
  0.1611000E-02  0.1611000E-02  0.1611000E-02  0.1611000E-02  0.1611000E-02  0.1611000E-02  0.1611000E-02  0.1611000E-02  0.1611000E-02  0.1611000E-02
  0.1611000E-02  0.1611000E-02  0.1611000E-02  0.1611000E-02  0.1611000E-02  0.1611000E-02  0.1611000E-02  0.1611000E-02  0.1611000E-02  0.1611000E-02
  0.1611000E-02  0.1611000E-02  0.1611000E-02  0.1611000E-02  0.1611000E-02  0.1611000E-02  0.1611000E-02  0.1611000E-02  0.1611000E-02  0.1611000E-02
  0.1611000E-02  0.1611000E-02  0.1611000E-02  0.1611000E-02
  0.1611000E-02  0.1611000E-02  0.1611000E-02  0.1611000E-02  0.1611000E-02  0.1611000E-02  0.1611000E-02  0.1611000E-02  0.1611000E-02  0.1611000E-02
  0.1611000E-02  0.1611000E-02  0.1611000E-02  0.1611000E-02  0.1611000E-02  0.1611000E-02  0.1611000E-02  0.1611000E-02  0.1611000E-02  0.1611000E-02
  0.1611000E-02  0.1611000E-02  0.1611000E-02  0.1611000E-02  0.1611000E-02  0.1611000E-02  0.1611000E-02  0.1611000E-02  0.1611000E-02  0.1611000E-02
  0.1611000E-02  0.1611000E-02  0.1611000E-02  0.1611000E-02  0.1611000E-02  0.1611000E-02  0.1611000E-02  0.1611000E-02  0.1611000E-02  0.1611000E-02
  0.1611000E-02  0.1611000E-02  0.1611000E-02  0.1611000E-02  0.1611000E-02  0.1611000E-02  0.1611000E-02  0.1611000E-02  0.1611000E-02  0.1611000E-02
  0.1611000E-02  0.1611000E-02  0.1611000E-02  0.1611000E-02  0.1611000E-02  0.1611000E-02  0.1611000E-02  0.1611000E-02  0.1611000E-02  0.1611000E-02
  0.1611000E-02  0.1611000E-02  0.1611000E-02  0.1611000E-02  0.1611000E-02  0.1611000E-02  0.1611000E-02  0.1611000E-02  0.1611000E-02  0.1611000E-02
  0.1611000E-02  0.1611000E-02  0.1611000E-02  0.1611000E-02  0.1611000E-02  0.1611000E-02  0.1611000E-02  0.1611000E-02  0.1611000E-02  0.1611000E-02
  0.1611000E-02  0.1611000E-02  0.1611000E-02  0.1611000E-02  0.1611000E-02  0.1611000E-02  0.1611000E-02  0.1611000E-02  0.1611000E-02  0.1611000E-02
  0.1611000E-02  0.1611000E-02  0.1611000E-02  0.1611000E-02  0.1611000E-02  0.1611000E-02  0.1611000E-02  0.1611000E-02  0.1611000E-02  0.1611000E-02
  0.1611000E-02  0.1611000E-02  0.1611000E-02  0.1611000E-02  0.1611000E-02  0.1611000E-02  0.1611000E-02  0.1611000E-02  0.1611000E-02  0.1611000E-02
  0.1611000E-02  0.1611000E-02  0.1611000E-02  0.1611000E-02  0.1611000E-02  0.1611000E-02  0.1611000E-02  0.1611000E-02  0.1611000E-02  0.1611000E-02
  0.1611000E-02  0.1611000E-02  0.1611000E-02  0.1611000E-02  0.1611000E-02  0.1611000E-02  0.1611000E-02  0.1611000E-02  0.1611000E-02  0.1611000E-02
  0.1611000E-02  0.1611000E-02  0.1611000E-02  0.1611000E-02  0.1611000E-02  0.1611000E-02  0.1611000E-02  0.1611000E-02  0.1611000E-02  0.1611000E-02
  0.1611000E-02  0.1611000E-02  0.1611000E-02  0.1611000E-02  0.1611000E-02  0.1611000E-02  0.1611000E-02  0.1611000E-02  0.1611000E-02  0.1611000E-02
  0.1611000E-02  0.1611000E-02  0.1611000E-02  0.1611000E-02
  0.1611000E-02  0.1611000E-02  0.1611000E-02  0.1611000E-02  0.1611000E-02  0.1611000E-02  0.1611000E-02  0.1611000E-02  0.1611000E-02  0.1611000E-02
  0.1611000E-02  0.1611000E-02  0.1611000E-02  0.1611000E-02  0.1611000E-02  0.1611000E-02  0.1611000E-02  0.1611000E-02  0.1611000E-02  0.1611000E-02
  0.1611000E-02  0.1611000E-02  0.1611000E-02  0.1611000E-02  0.1611000E-02  0.1611000E-02  0.1611000E-02  0.1611000E-02  0.1611000E-02  0.1611000E-02
  0.1611000E-02  0.1611000E-02  0.1611000E-02  0.1611000E-02  0.1611000E-02  0.1611000E-02  0.1611000E-02  0.1611000E-02  0.1611000E-02  0.1611000E-02
  0.1611000E-02  0.1611000E-02  0.1611000E-02  0.1611000E-02  0.1611000E-02  0.1611000E-02  0.1611000E-02  0.1611000E-02  0.1611000E-02  0.1611000E-02
  0.1611000E-02  0.1611000E-02  0.1611000E-02  0.1611000E-02  0.1611000E-02  0.1611000E-02  0.1611000E-02  0.1611000E-02  0.1611000E-02  0.1611000E-02
  0.1611000E-02  0.1611000E-02  0.1611000E-02  0.1611000E-02  0.1611000E-02  0.1611000E-02  0.1611000E-02  0.1611000E-02  0.1611000E-02  0.1611000E-02
  0.1611000E-02  0.1611000E-02  0.1611000E-02  0.1611000E-02  0.1611000E-02  0.1611000E-02  0.1611000E-02  0.1611000E-02  0.1611000E-02  0.1611000E-02
  0.1611000E-02  0.1611000E-02  0.1611000E-02  0.1611000E-02  0.1611000E-02  0.1611000E-02  0.1611000E-02  0.1611000E-02  0.1611000E-02  0.1611000E-02
  0.1611000E-02  0.1611000E-02  0.1611000E-02  0.1611000E-02  0.1611000E-02  0.1611000E-02  0.1611000E-02  0.1611000E-02  0.1611000E-02  0.1611000E-02
  0.1611000E-02  0.1611000E-02  0.1611000E-02  0.1611000E-02  0.1611000E-02  0.1611000E-02  0.1611000E-02  0.1611000E-02  0.1611000E-02  0.1611000E-02
  0.1611000E-02  0.1611000E-02  0.1611000E-02  0.1611000E-02  0.1611000E-02  0.1611000E-02  0.1611000E-02  0.1611000E-02  0.1611000E-02  0.1611000E-02
  0.1611000E-02  0.1611000E-02  0.1611000E-02  0.1611000E-02  0.1611000E-02  0.1611000E-02  0.1611000E-02  0.1611000E-02  0.1611000E-02  0.1611000E-02
  0.1611000E-02  0.1611000E-02  0.1611000E-02  0.1611000E-02  0.1611000E-02  0.1611000E-02  0.1611000E-02  0.1611000E-02  0.1611000E-02  0.1611000E-02
  0.1611000E-02  0.1611000E-02  0.1611000E-02  0.1611000E-02  0.1611000E-02  0.1611000E-02  0.1611000E-02  0.1611000E-02  0.1611000E-02  0.1611000E-02
  0.1611000E-02  0.1611000E-02  0.1611000E-02  0.1611000E-02
  0.1611000E-02  0.1611000E-02  0.1611000E-02  0.1611000E-02  0.1611000E-02  0.1611000E-02  0.1611000E-02  0.1611000E-02  0.1611000E-02  0.1611000E-02
  0.1611000E-02  0.1611000E-02  0.1611000E-02  0.1611000E-02  0.1611000E-02  0.1611000E-02  0.1611000E-02  0.1611000E-02  0.1611000E-02  0.1611000E-02
  0.1611000E-02  0.1611000E-02  0.1611000E-02  0.1611000E-02  0.1611000E-02  0.1611000E-02  0.1611000E-02  0.1611000E-02  0.1611000E-02  0.1611000E-02
  0.1611000E-02  0.1611000E-02  0.1611000E-02  0.1611000E-02  0.1611000E-02  0.1611000E-02  0.1611000E-02  0.1611000E-02  0.1611000E-02  0.1611000E-02
  0.1611000E-02  0.1611000E-02  0.1611000E-02  0.1611000E-02  0.1611000E-02  0.1611000E-02  0.1611000E-02  0.1611000E-02  0.1611000E-02  0.1611000E-02
  0.1611000E-02  0.1611000E-02  0.1611000E-02  0.1611000E-02  0.1611000E-02  0.1611000E-02  0.1611000E-02  0.1611000E-02  0.1611000E-02  0.1611000E-02
  0.1611000E-02  0.1611000E-02  0.1611000E-02  0.1611000E-02  0.1611000E-02  0.1611000E-02  0.1611000E-02  0.1611000E-02  0.1611000E-02  0.1611000E-02
  0.1611000E-02  0.1611000E-02  0.1611000E-02  0.1611000E-02  0.1611000E-02  0.1611000E-02  0.1611000E-02  0.1611000E-02  0.1611000E-02  0.1611000E-02
  0.1611000E-02  0.1611000E-02  0.1611000E-02  0.1611000E-02  0.1611000E-02  0.1611000E-02  0.1611000E-02  0.1611000E-02  0.1611000E-02  0.1611000E-02
  0.1611000E-02  0.1611000E-02  0.1611000E-02  0.1611000E-02  0.1611000E-02  0.1611000E-02  0.1611000E-02  0.1611000E-02  0.1611000E-02  0.1611000E-02
  0.1611000E-02  0.1611000E-02  0.1611000E-02  0.1611000E-02  0.1611000E-02  0.1611000E-02  0.1611000E-02  0.1611000E-02  0.1611000E-02  0.1611000E-02
  0.1611000E-02  0.1611000E-02  0.1611000E-02  0.1611000E-02  0.1611000E-02  0.1611000E-02  0.1611000E-02  0.1611000E-02  0.1611000E-02  0.1611000E-02
  0.1611000E-02  0.1611000E-02  0.1611000E-02  0.1611000E-02  0.1611000E-02  0.1611000E-02  0.1611000E-02  0.1611000E-02  0.1611000E-02  0.1611000E-02
  0.1611000E-02  0.1611000E-02  0.1611000E-02  0.1611000E-02  0.1611000E-02  0.1611000E-02  0.1611000E-02  0.1611000E-02  0.1611000E-02  0.1611000E-02
  0.1611000E-02  0.1611000E-02  0.1611000E-02  0.1611000E-02  0.1611000E-02  0.1611000E-02  0.1611000E-02  0.1611000E-02  0.1611000E-02  0.1611000E-02
  0.1611000E-02  0.1611000E-02  0.1611000E-02  0.1611000E-02
  0.1350000E-03  0.1350000E-03  0.1350000E-03  0.1350000E-03  0.1350000E-03  0.1350000E-03  0.1350000E-03  0.1350000E-03  0.1350000E-03  0.1350000E-03
  0.1350000E-03  0.1350000E-03  0.1350000E-03  0.1350000E-03  0.1350000E-03  0.1350000E-03  0.1350000E-03  0.1350000E-03  0.1350000E-03  0.1350000E-03
  0.1350000E-03  0.1350000E-03  0.1350000E-03  0.1350000E-03  0.1350000E-03  0.1350000E-03  0.1350000E-03  0.1350000E-03  0.1350000E-03  0.1350000E-03
  0.1350000E-03  0.1350000E-03  0.1350000E-03  0.1350000E-03  0.1350000E-03  0.1350000E-03  0.1350000E-03  0.1350000E-03  0.1350000E-03  0.1350000E-03
  0.1350000E-03  0.1350000E-03  0.1350000E-03  0.1350000E-03  0.1350000E-03  0.1350000E-03  0.1350000E-03  0.1350000E-03  0.1350000E-03  0.1350000E-03
  0.1350000E-03  0.1350000E-03  0.1350000E-03  0.1350000E-03  0.1350000E-03  0.1350000E-03  0.1350000E-03  0.1350000E-03  0.1350000E-03  0.1350000E-03
  0.1350000E-03  0.1350000E-03  0.1350000E-03  0.1350000E-03  0.1350000E-03  0.1350000E-03  0.1350000E-03  0.1350000E-03  0.1350000E-03  0.1350000E-03
  0.1350000E-03  0.1350000E-03  0.1350000E-03  0.1350000E-03  0.1350000E-03  0.1350000E-03  0.1350000E-03  0.1350000E-03  0.1350000E-03  0.1350000E-03
  0.1350000E-03  0.1350000E-03  0.1350000E-03  0.1350000E-03  0.1350000E-03  0.1350000E-03  0.1350000E-03  0.1350000E-03  0.1350000E-03  0.1350000E-03
  0.1350000E-03  0.1350000E-03  0.1350000E-03  0.1350000E-03  0.1350000E-03  0.1350000E-03  0.1350000E-03  0.1350000E-03  0.1350000E-03  0.1350000E-03
  0.1350000E-03  0.1350000E-03  0.1350000E-03  0.1350000E-03  0.1350000E-03  0.1350000E-03  0.1350000E-03  0.1350000E-03  0.1350000E-03  0.1350000E-03
  0.1350000E-03  0.1350000E-03  0.1350000E-03  0.1350000E-03  0.1350000E-03  0.1350000E-03  0.1350000E-03  0.1350000E-03  0.1350000E-03  0.1350000E-03
  0.1350000E-03  0.1350000E-03  0.1350000E-03  0.1350000E-03  0.1350000E-03  0.1350000E-03  0.1350000E-03  0.1350000E-03  0.1350000E-03  0.1350000E-03
  0.1350000E-03  0.1611000E-02  0.1611000E-02  0.1611000E-02  0.1611000E-02  0.1611000E-02  0.1611000E-02  0.1611000E-02  0.1611000E-02  0.1611000E-02
  0.1611000E-02  0.1611000E-02  0.1611000E-02  0.1611000E-02  0.1611000E-02  0.1611000E-02  0.1611000E-02  0.1611000E-02  0.1611000E-02  0.1611000E-02
  0.1611000E-02  0.1611000E-02  0.1611000E-02  0.1611000E-02
  0.1350000E-03  0.1350000E-03  0.1350000E-03  0.1350000E-03  0.1350000E-03  0.1350000E-03  0.1350000E-03  0.1350000E-03  0.1350000E-03  0.1350000E-03
  0.1350000E-03  0.1350000E-03  0.1350000E-03  0.1350000E-03  0.1350000E-03  0.1350000E-03  0.1350000E-03  0.1350000E-03  0.1350000E-03  0.1350000E-03
  0.1350000E-03  0.1350000E-03  0.1350000E-03  0.1350000E-03  0.1350000E-03  0.1350000E-03  0.1350000E-03  0.1350000E-03  0.1350000E-03  0.1350000E-03
  0.1350000E-03  0.1350000E-03  0.1350000E-03  0.1350000E-03  0.1350000E-03  0.1350000E-03  0.1350000E-03  0.1350000E-03  0.1350000E-03  0.1350000E-03
  0.1350000E-03  0.1350000E-03  0.1350000E-03  0.1350000E-03  0.1350000E-03  0.1350000E-03  0.1350000E-03  0.1350000E-03  0.1350000E-03  0.1350000E-03
  0.1350000E-03  0.1350000E-03  0.1350000E-03  0.1350000E-03  0.1350000E-03  0.1350000E-03  0.1350000E-03  0.1350000E-03  0.1350000E-03  0.1350000E-03
  0.1350000E-03  0.1350000E-03  0.1350000E-03  0.1350000E-03  0.1350000E-03  0.1350000E-03  0.1350000E-03  0.1350000E-03  0.1350000E-03  0.1350000E-03
  0.1350000E-03  0.1350000E-03  0.1350000E-03  0.1350000E-03  0.1350000E-03  0.1350000E-03  0.1350000E-03  0.1350000E-03  0.1350000E-03  0.1350000E-03
  0.1350000E-03  0.1350000E-03  0.1350000E-03  0.1350000E-03  0.1350000E-03  0.1350000E-03  0.1350000E-03  0.1350000E-03  0.1350000E-03  0.1350000E-03
  0.1350000E-03  0.1350000E-03  0.1350000E-03  0.1350000E-03  0.1350000E-03  0.1350000E-03  0.1350000E-03  0.1350000E-03  0.1350000E-03  0.1350000E-03
  0.1350000E-03  0.1350000E-03  0.1350000E-03  0.1350000E-03  0.1350000E-03  0.1350000E-03  0.1350000E-03  0.1350000E-03  0.1350000E-03  0.1350000E-03
  0.1350000E-03  0.1350000E-03  0.1350000E-03  0.1350000E-03  0.1350000E-03  0.1350000E-03  0.1350000E-03  0.1350000E-03  0.1350000E-03  0.1350000E-03
  0.1350000E-03  0.1350000E-03  0.1350000E-03  0.1350000E-03  0.1350000E-03  0.1350000E-03  0.1350000E-03  0.1350000E-03  0.1350000E-03  0.1350000E-03
  0.1350000E-03  0.1611000E-02  0.1611000E-02  0.1611000E-02  0.1611000E-02  0.1611000E-02  0.1611000E-02  0.1611000E-02  0.1611000E-02  0.1611000E-02
  0.1611000E-02  0.1611000E-02  0.1611000E-02  0.1611000E-02  0.1611000E-02  0.1611000E-02  0.1611000E-02  0.1611000E-02  0.1611000E-02  0.1611000E-02
  0.1611000E-02  0.1611000E-02  0.1611000E-02  0.1611000E-02
  0.1350000E-03  0.1350000E-03  0.1350000E-03  0.1350000E-03  0.1350000E-03  0.1350000E-03  0.1350000E-03  0.1350000E-03  0.1350000E-03  0.1350000E-03
  0.1350000E-03  0.1350000E-03  0.1350000E-03  0.1350000E-03  0.1350000E-03  0.1350000E-03  0.1350000E-03  0.1350000E-03  0.1350000E-03  0.1350000E-03
  0.1350000E-03  0.1350000E-03  0.1350000E-03  0.1350000E-03  0.1350000E-03  0.1350000E-03  0.1350000E-03  0.1350000E-03  0.1350000E-03  0.1350000E-03
  0.1350000E-03  0.1350000E-03  0.1350000E-03  0.1350000E-03  0.1350000E-03  0.1350000E-03  0.1350000E-03  0.1350000E-03  0.1350000E-03  0.1350000E-03
  0.1350000E-03  0.1350000E-03  0.1350000E-03  0.1350000E-03  0.1350000E-03  0.1350000E-03  0.1350000E-03  0.1350000E-03  0.1350000E-03  0.1350000E-03
  0.1350000E-03  0.1350000E-03  0.1350000E-03  0.1350000E-03  0.1350000E-03  0.1350000E-03  0.1350000E-03  0.1350000E-03  0.1350000E-03  0.1350000E-03
  0.1350000E-03  0.1350000E-03  0.1350000E-03  0.1350000E-03  0.1350000E-03  0.1350000E-03  0.1350000E-03  0.1350000E-03  0.1350000E-03  0.1350000E-03
  0.1350000E-03  0.1350000E-03  0.1350000E-03  0.1350000E-03  0.1350000E-03  0.1350000E-03  0.1350000E-03  0.1350000E-03  0.1350000E-03  0.1350000E-03
  0.1350000E-03  0.1350000E-03  0.1350000E-03  0.1350000E-03  0.1350000E-03  0.1350000E-03  0.1350000E-03  0.1350000E-03  0.1350000E-03  0.1350000E-03
  0.1350000E-03  0.1350000E-03  0.1350000E-03  0.1350000E-03  0.1350000E-03  0.1350000E-03  0.1350000E-03  0.1350000E-03  0.1350000E-03  0.1350000E-03
  0.1350000E-03  0.1350000E-03  0.1350000E-03  0.1350000E-03  0.1350000E-03  0.1350000E-03  0.1350000E-03  0.1350000E-03  0.1350000E-03  0.1350000E-03
  0.1350000E-03  0.1350000E-03  0.1350000E-03  0.1350000E-03  0.1350000E-03  0.1350000E-03  0.1350000E-03  0.1350000E-03  0.1350000E-03  0.1350000E-03
  0.1350000E-03  0.1350000E-03  0.1350000E-03  0.1350000E-03  0.1350000E-03  0.1350000E-03  0.1350000E-03  0.1350000E-03  0.1350000E-03  0.1350000E-03
  0.1350000E-03  0.1611000E-02  0.1611000E-02  0.1611000E-02  0.1611000E-02  0.1611000E-02  0.1611000E-02  0.1611000E-02  0.1611000E-02  0.1611000E-02
  0.1611000E-02  0.1611000E-02  0.1611000E-02  0.1611000E-02  0.1611000E-02  0.1611000E-02  0.1611000E-02  0.1611000E-02  0.1611000E-02  0.1611000E-02
  0.1611000E-02  0.1611000E-02  0.1611000E-02  0.1611000E-02
  0.1350000E-03  0.1350000E-03  0.1350000E-03  0.1350000E-03  0.1350000E-03  0.1350000E-03  0.1350000E-03  0.1350000E-03  0.1350000E-03  0.1350000E-03
  0.1350000E-03  0.1350000E-03  0.1350000E-03  0.1350000E-03  0.1350000E-03  0.1350000E-03  0.1350000E-03  0.1350000E-03  0.1350000E-03  0.1350000E-03
  0.1350000E-03  0.1350000E-03  0.1350000E-03  0.1350000E-03  0.1350000E-03  0.1350000E-03  0.1350000E-03  0.1350000E-03  0.1350000E-03  0.1350000E-03
  0.1350000E-03  0.1350000E-03  0.1350000E-03  0.1350000E-03  0.1350000E-03  0.1350000E-03  0.1350000E-03  0.1350000E-03  0.1350000E-03  0.1350000E-03
  0.1350000E-03  0.1350000E-03  0.1350000E-03  0.1350000E-03  0.1350000E-03  0.1350000E-03  0.1350000E-03  0.1350000E-03  0.1350000E-03  0.1350000E-03
  0.1350000E-03  0.1350000E-03  0.1350000E-03  0.1350000E-03  0.1350000E-03  0.1350000E-03  0.1350000E-03  0.1350000E-03  0.1350000E-03  0.1350000E-03
  0.1350000E-03  0.1350000E-03  0.1350000E-03  0.1350000E-03  0.1350000E-03  0.1350000E-03  0.1350000E-03  0.1350000E-03  0.1350000E-03  0.1350000E-03
  0.1350000E-03  0.1350000E-03  0.1350000E-03  0.1350000E-03  0.1350000E-03  0.1350000E-03  0.1350000E-03  0.1350000E-03  0.1350000E-03  0.1350000E-03
  0.1350000E-03  0.1350000E-03  0.1350000E-03  0.1350000E-03  0.1350000E-03  0.1350000E-03  0.1350000E-03  0.1350000E-03  0.1350000E-03  0.1350000E-03
  0.1350000E-03  0.1350000E-03  0.1350000E-03  0.1350000E-03  0.1350000E-03  0.1350000E-03  0.1350000E-03  0.1350000E-03  0.1350000E-03  0.1350000E-03
  0.1350000E-03  0.1350000E-03  0.1350000E-03  0.1350000E-03  0.1350000E-03  0.1350000E-03  0.1350000E-03  0.1350000E-03  0.1350000E-03  0.1350000E-03
  0.1350000E-03  0.1350000E-03  0.1350000E-03  0.1350000E-03  0.1350000E-03  0.1350000E-03  0.1350000E-03  0.1350000E-03  0.1350000E-03  0.1350000E-03
  0.1350000E-03  0.1350000E-03  0.1350000E-03  0.1350000E-03  0.1350000E-03  0.1350000E-03  0.1350000E-03  0.1350000E-03  0.1350000E-03  0.1350000E-03
  0.1350000E-03  0.1611000E-02  0.1611000E-02  0.1611000E-02  0.1611000E-02  0.1611000E-02  0.1611000E-02  0.1611000E-02  0.1611000E-02  0.1611000E-02
  0.1611000E-02  0.1611000E-02  0.1611000E-02  0.1611000E-02  0.1611000E-02  0.1611000E-02  0.1611000E-02  0.1611000E-02  0.1611000E-02  0.1611000E-02
  0.1611000E-02  0.1611000E-02  0.1611000E-02  0.1611000E-02
  0.1350000E-03  0.1350000E-03  0.1350000E-03  0.1350000E-03  0.1350000E-03  0.1350000E-03  0.1350000E-03  0.1350000E-03  0.1350000E-03  0.1350000E-03
  0.1350000E-03  0.1350000E-03  0.1350000E-03  0.1350000E-03  0.1350000E-03  0.1350000E-03  0.1350000E-03  0.1350000E-03  0.1350000E-03  0.1350000E-03
  0.1350000E-03  0.1350000E-03  0.1350000E-03  0.1350000E-03  0.1350000E-03  0.1350000E-03  0.1350000E-03  0.1350000E-03  0.1350000E-03  0.1350000E-03
  0.1350000E-03  0.1350000E-03  0.1350000E-03  0.1350000E-03  0.1350000E-03  0.1350000E-03  0.1350000E-03  0.1350000E-03  0.1350000E-03  0.1350000E-03
  0.1350000E-03  0.1350000E-03  0.1350000E-03  0.1350000E-03  0.1350000E-03  0.1350000E-03  0.1350000E-03  0.1350000E-03  0.1350000E-03  0.1350000E-03
  0.1350000E-03  0.1350000E-03  0.1350000E-03  0.1350000E-03  0.1350000E-03  0.1350000E-03  0.1350000E-03  0.1350000E-03  0.1350000E-03  0.1350000E-03
  0.1350000E-03  0.1350000E-03  0.1350000E-03  0.1350000E-03  0.1350000E-03  0.1350000E-03  0.1350000E-03  0.1350000E-03  0.1350000E-03  0.1350000E-03
  0.1350000E-03  0.1350000E-03  0.1350000E-03  0.1350000E-03  0.1350000E-03  0.1350000E-03  0.1350000E-03  0.1350000E-03  0.1350000E-03  0.1350000E-03
  0.1350000E-03  0.1350000E-03  0.1350000E-03  0.1350000E-03  0.1350000E-03  0.1350000E-03  0.1350000E-03  0.1350000E-03  0.1350000E-03  0.1350000E-03
  0.1350000E-03  0.1350000E-03  0.1350000E-03  0.1350000E-03  0.1350000E-03  0.1350000E-03  0.1350000E-03  0.1350000E-03  0.1350000E-03  0.1350000E-03
  0.1350000E-03  0.1350000E-03  0.1350000E-03  0.1350000E-03  0.1350000E-03  0.1350000E-03  0.1350000E-03  0.1350000E-03  0.1350000E-03  0.1350000E-03
  0.1350000E-03  0.1350000E-03  0.1350000E-03  0.1350000E-03  0.1350000E-03  0.1350000E-03  0.1350000E-03  0.1350000E-03  0.1350000E-03  0.1350000E-03
  0.1350000E-03  0.1350000E-03  0.1350000E-03  0.1350000E-03  0.1350000E-03  0.1350000E-03  0.1350000E-03  0.1350000E-03  0.1350000E-03  0.1350000E-03
  0.1350000E-03  0.1611000E-02  0.1611000E-02  0.1611000E-02  0.1611000E-02  0.1611000E-02  0.1611000E-02  0.1611000E-02  0.1611000E-02  0.1611000E-02
  0.1611000E-02  0.1611000E-02  0.1611000E-02  0.1611000E-02  0.1611000E-02  0.1611000E-02  0.1611000E-02  0.1611000E-02  0.1611000E-02  0.1611000E-02
  0.1611000E-02  0.1611000E-02  0.1611000E-02  0.1611000E-02
  0.1350000E-03  0.1350000E-03  0.1350000E-03  0.1350000E-03  0.1350000E-03  0.1350000E-03  0.1350000E-03  0.1350000E-03  0.1350000E-03  0.1350000E-03
  0.1350000E-03  0.1350000E-03  0.1350000E-03  0.1350000E-03  0.1350000E-03  0.1350000E-03  0.1350000E-03  0.1350000E-03  0.1350000E-03  0.1350000E-03
  0.1350000E-03  0.1350000E-03  0.1350000E-03  0.1350000E-03  0.1350000E-03  0.1350000E-03  0.1350000E-03  0.1350000E-03  0.1350000E-03  0.1350000E-03
  0.1350000E-03  0.1350000E-03  0.1350000E-03  0.1350000E-03  0.1350000E-03  0.1350000E-03  0.1350000E-03  0.1350000E-03  0.1350000E-03  0.1350000E-03
  0.1350000E-03  0.1350000E-03  0.1350000E-03  0.1350000E-03  0.1350000E-03  0.1350000E-03  0.1350000E-03  0.1350000E-03  0.1350000E-03  0.1350000E-03
  0.1350000E-03  0.1350000E-03  0.1350000E-03  0.1350000E-03  0.1350000E-03  0.1350000E-03  0.1350000E-03  0.1350000E-03  0.1350000E-03  0.1350000E-03
  0.1350000E-03  0.1350000E-03  0.1350000E-03  0.1350000E-03  0.1350000E-03  0.1350000E-03  0.1350000E-03  0.1350000E-03  0.1350000E-03  0.1350000E-03
  0.1350000E-03  0.1350000E-03  0.1350000E-03  0.1350000E-03  0.1350000E-03  0.1350000E-03  0.1350000E-03  0.1350000E-03  0.1350000E-03  0.1350000E-03
  0.1350000E-03  0.1350000E-03  0.1350000E-03  0.1350000E-03  0.1350000E-03  0.1350000E-03  0.1350000E-03  0.1350000E-03  0.1350000E-03  0.1350000E-03
  0.1350000E-03  0.1350000E-03  0.1350000E-03  0.1350000E-03  0.1350000E-03  0.1350000E-03  0.1350000E-03  0.1350000E-03  0.1350000E-03  0.1350000E-03
  0.1350000E-03  0.1350000E-03  0.1350000E-03  0.1350000E-03  0.1350000E-03  0.1350000E-03  0.1350000E-03  0.1350000E-03  0.1350000E-03  0.1350000E-03
  0.1350000E-03  0.1350000E-03  0.1350000E-03  0.1350000E-03  0.1350000E-03  0.1350000E-03  0.1350000E-03  0.1350000E-03  0.1350000E-03  0.1350000E-03
  0.1350000E-03  0.1350000E-03  0.1350000E-03  0.1350000E-03  0.1350000E-03  0.1350000E-03  0.1350000E-03  0.1350000E-03  0.1350000E-03  0.1350000E-03
  0.1350000E-03  0.1611000E-02  0.1611000E-02  0.1611000E-02  0.1611000E-02  0.1611000E-02  0.1611000E-02  0.1611000E-02  0.1611000E-02  0.1611000E-02
  0.1611000E-02  0.1611000E-02  0.1611000E-02  0.1611000E-02  0.1611000E-02  0.1611000E-02  0.1611000E-02  0.1611000E-02  0.1611000E-02  0.1611000E-02
  0.1611000E-02  0.1611000E-02  0.1611000E-02  0.1611000E-02
  0.1350000E-03  0.1350000E-03  0.1350000E-03  0.1350000E-03  0.1350000E-03  0.1350000E-03  0.1350000E-03  0.1350000E-03  0.1350000E-03  0.1350000E-03
  0.1350000E-03  0.1350000E-03  0.1350000E-03  0.1350000E-03  0.1350000E-03  0.1350000E-03  0.1350000E-03  0.1350000E-03  0.1350000E-03  0.1350000E-03
  0.1350000E-03  0.1350000E-03  0.1350000E-03  0.1350000E-03  0.1350000E-03  0.1350000E-03  0.1350000E-03  0.1350000E-03  0.1350000E-03  0.1350000E-03
  0.1350000E-03  0.1350000E-03  0.1350000E-03  0.1350000E-03  0.1350000E-03  0.1350000E-03  0.1350000E-03  0.1350000E-03  0.1350000E-03  0.1350000E-03
  0.1350000E-03  0.1350000E-03  0.1350000E-03  0.1350000E-03  0.1350000E-03  0.1350000E-03  0.1350000E-03  0.1350000E-03  0.1350000E-03  0.1350000E-03
  0.1350000E-03  0.1350000E-03  0.1350000E-03  0.1350000E-03  0.1350000E-03  0.1350000E-03  0.1350000E-03  0.1350000E-03  0.1350000E-03  0.1350000E-03
  0.1350000E-03  0.1350000E-03  0.1350000E-03  0.1350000E-03  0.1350000E-03  0.1350000E-03  0.1350000E-03  0.1350000E-03  0.1350000E-03  0.1350000E-03
  0.1350000E-03  0.1350000E-03  0.1350000E-03  0.1350000E-03  0.1350000E-03  0.1350000E-03  0.1350000E-03  0.1350000E-03  0.1350000E-03  0.1350000E-03
  0.1350000E-03  0.1350000E-03  0.1350000E-03  0.1350000E-03  0.1350000E-03  0.1350000E-03  0.1350000E-03  0.1350000E-03  0.1350000E-03  0.1350000E-03
  0.1350000E-03  0.1350000E-03  0.1350000E-03  0.1350000E-03  0.1350000E-03  0.1350000E-03  0.1350000E-03  0.1350000E-03  0.1350000E-03  0.1350000E-03
  0.1350000E-03  0.1350000E-03  0.1350000E-03  0.1350000E-03  0.1350000E-03  0.1350000E-03  0.1350000E-03  0.1350000E-03  0.1350000E-03  0.1350000E-03
  0.1350000E-03  0.1350000E-03  0.1350000E-03  0.1350000E-03  0.1350000E-03  0.1350000E-03  0.1350000E-03  0.1350000E-03  0.1350000E-03  0.1350000E-03
  0.1350000E-03  0.1350000E-03  0.1350000E-03  0.1350000E-03  0.1350000E-03  0.1350000E-03  0.1350000E-03  0.1350000E-03  0.1350000E-03  0.1350000E-03
  0.1350000E-03  0.1611000E-02  0.1611000E-02  0.1611000E-02  0.1611000E-02  0.1611000E-02  0.1611000E-02  0.1611000E-02  0.1611000E-02  0.1611000E-02
  0.1611000E-02  0.1611000E-02  0.1611000E-02  0.1611000E-02  0.1611000E-02  0.1611000E-02  0.1611000E-02  0.1611000E-02  0.1611000E-02  0.1611000E-02
  0.1611000E-02  0.1611000E-02  0.1611000E-02  0.1611000E-02
  0.1350000E-03  0.1350000E-03  0.1350000E-03  0.1350000E-03  0.1350000E-03  0.1350000E-03  0.1350000E-03  0.1350000E-03  0.1350000E-03  0.1350000E-03
  0.1350000E-03  0.1350000E-03  0.1350000E-03  0.1350000E-03  0.1350000E-03  0.1350000E-03  0.1350000E-03  0.1350000E-03  0.1350000E-03  0.1350000E-03
  0.1350000E-03  0.1350000E-03  0.1350000E-03  0.1350000E-03  0.1350000E-03  0.1350000E-03  0.1350000E-03  0.1350000E-03  0.1350000E-03  0.1350000E-03
  0.1350000E-03  0.1350000E-03  0.1350000E-03  0.1350000E-03  0.1350000E-03  0.1350000E-03  0.1350000E-03  0.1350000E-03  0.1350000E-03  0.1350000E-03
  0.1350000E-03  0.1350000E-03  0.1350000E-03  0.1350000E-03  0.1350000E-03  0.1350000E-03  0.1350000E-03  0.1350000E-03  0.1350000E-03  0.1350000E-03
  0.1350000E-03  0.1350000E-03  0.1350000E-03  0.1350000E-03  0.1350000E-03  0.1350000E-03  0.1350000E-03  0.1350000E-03  0.1350000E-03  0.1350000E-03
  0.1350000E-03  0.1350000E-03  0.1350000E-03  0.1350000E-03  0.1350000E-03  0.1350000E-03  0.1350000E-03  0.1350000E-03  0.1350000E-03  0.1350000E-03
  0.1350000E-03  0.1350000E-03  0.1350000E-03  0.1350000E-03  0.1350000E-03  0.1350000E-03  0.1350000E-03  0.1350000E-03  0.1350000E-03  0.1350000E-03
  0.1350000E-03  0.1350000E-03  0.1350000E-03  0.1350000E-03  0.1350000E-03  0.1350000E-03  0.1350000E-03  0.1350000E-03  0.1350000E-03  0.1350000E-03
  0.1350000E-03  0.1350000E-03  0.1350000E-03  0.1350000E-03  0.1350000E-03  0.1350000E-03  0.1350000E-03  0.1350000E-03  0.1350000E-03  0.1350000E-03
  0.1350000E-03  0.1350000E-03  0.1350000E-03  0.1350000E-03  0.1350000E-03  0.1350000E-03  0.1350000E-03  0.1350000E-03  0.1350000E-03  0.1350000E-03
  0.1350000E-03  0.1350000E-03  0.1350000E-03  0.1350000E-03  0.1350000E-03  0.1350000E-03  0.1350000E-03  0.1350000E-03  0.1350000E-03  0.1350000E-03