# TDIS6 input file, prepared by MF5to6 on 4/13/2026 at 10:12:18.

BEGIN Options
  TIME_UNITS UNDEFINED
END Options

BEGIN Dimensions
  NPER 1
END Dimensions

BEGIN PERIODDATA
    1.0000000               1    1.0000000      Items: PERLEN NSTP TSMULT
END PERIODDATA
