# OBS6 input file, prepared by MF5to6 on 4/13/2026 at 10:12:18.
BEGIN Options
  PRINT_INPUT
  DIGITS  7
END Options
