# CHD6 input file, prepared by MF5to6 on 4/13/2026 at 10:12:18.

BEGIN Options
  PRINT_INPUT
  PRINT_FLOWS
END Options

BEGIN Dimensions
  MAXBOUND  504
END Dimensions

BEGIN PERIOD 1
  1  1  1    5.5000000
  1  1  2    5.5000000
  1  1  3    5.5000000
  1  1  4    5.5000000
  1  1  5    5.5000000
  1  1  6    5.5000000
  1  1  7    5.5000000
  1  1  8    5.5000000
  1  1  9    5.5000000
  1  1  10    5.5000000
  1  1  11    5.5000000
  1  1  12    5.5000000
  1  1  13    5.5000000
  1  1  14    5.5000000
  1  1  15    5.5000000
  1  1  16    5.5000000
  1  1  17    5.5000000
  1  1  18    5.5000000
  1  1  19    5.5000000
  1  1  20    5.5000000
  1  1  21    5.5000000
  1  1  22    5.5000000
  1  1  23    5.5000000
  1  1  24    5.5000000
  1  1  25    5.5000000
  1  1  26    5.5000000
  1  1  27    5.5000000
  1  1  28    5.5000000
  1  1  29    5.5000000
  1  1  30    5.5000000
  1  1  31    5.5000000
  1  1  32    5.5000000
  1  1  33    5.5000000
  1  1  34    5.5000000
  1  1  35    5.5000000
  1  1  36    5.5000000
  1  1  37    5.5000000
  1  1  38    5.5000000
  1  1  39    5.5000000
  1  1  40    5.5000000
  1  1  41    5.5000000
  1  1  42    5.5000000
  1  1  43    5.5000000
  1  1  44    5.5000000
  1  1  45    5.5000000
  1  1  46    5.5000000
  1  1  47    5.5000000
  1  1  48    5.5000000
  1  1  49    5.5000000
  1  1  50    5.5000000
  1  1  51    5.5000000
  1  1  52    5.5000000
  1  1  53    5.5000000
  1  1  54    5.5000000
  1  1  55    5.5000000
  1  1  56    5.5000000
  1  1  57    5.5000000
  1  1  58    5.5000000
  1  1  59    5.5000000
  1  1  60    5.5000000
  1  1  61    5.5000000
  1  1  62    5.5000000
  1  1  63    5.5000000
  1  1  64    5.5000000
  1  1  65    5.5000000
  1  1  66    5.5000000
  1  1  67    5.5000000
  1  1  68    5.5000000
  1  1  69    5.5000000
  1  1  70    5.5000000
  1  1  71    5.5000000
  1  1  72    5.5000000
  1  1  73    5.5000000
  1  1  74    5.5000000
  1  1  75    5.5000000
  1  1  76    5.5000000
  1  1  77    5.5000000
  1  1  78    5.5000000
  1  1  79    5.5000000
  1  1  80    5.5000000
  1  1  81    5.5000000
  1  1  82    5.5000000
  1  1  83    5.5000000
  1  1  84    5.5000000
  1  1  85    5.5000000
  1  1  86    5.5000000
  1  1  87    5.5000000
  1  1  88    5.5000000
  1  1  89    5.5000000
  1  1  90    5.5000000
  1  1  91    5.5000000
  1  1  92    5.5000000
  1  1  93    5.5000000
  1  1  94    5.5000000
  1  1  95    5.5000000
  1  1  96    5.5000000
  1  1  97    5.5000000
  1  1  98    5.5000000
  1  1  99    5.5000000
  1  1  100    5.5000000
  1  1  101    5.5000000
  1  1  102    5.5000000
  1  1  103    5.5000000
  1  1  104    5.5000000
  1  1  105    5.5000000
  1  1  106    5.5000000
  1  1  107    5.5000000
  1  1  108    5.5000000
  1  1  109    5.5000000
  1  1  110    5.5000000
  1  1  111    5.5000000
  1  1  112    5.5000000
  1  1  113    5.5000000
  1  1  114    5.5000000
  1  1  115    5.5000000
  1  1  116    5.5000000
  1  1  117    5.5000000
  1  1  118    5.5000000
  1  1  119    5.5000000
  1  1  120    5.5000000
  1  1  121    5.5000000
  1  1  122    5.5000000
  1  1  123    5.5000000
  1  1  124    5.5000000
  1  1  125    5.5000000
  1  1  126    5.5000000
  1  1  127    5.5000000
  1  1  128    5.5000000
  1  1  129    5.5000000
  1  1  130    5.5000000
  1  1  131    5.5000000
  1  1  132    5.5000000
  1  1  133    5.5000000
  1  1  134    5.5000000
  1  1  135    5.5000000
  1  1  136    5.5000000
  1  1  137    5.5000000
  1  1  138    5.5000000
  1  1  139    5.5000000
  1  1  140    5.5000000
  1  1  141    5.5000000
  1  1  142    5.5000000
  1  1  143    5.5000000
  1  1  144    5.5000000
  1  1  145    5.5000000
  1  1  146    5.5000000
  1  1  147    5.5000000
  1  1  148    5.5000000
  1  1  149    5.5000000
  1  1  150    5.5000000
  1  1  151    5.5000000
  1  1  152    5.5000000
  1  1  153    5.5000000
  1  1  154    5.5000000
  1  2  1    5.5000000
  1  2  154    5.5000000
  1  3  1    5.5000000
  1  3  154    5.5000000
  1  4  1    5.5000000
  1  4  154    5.5000000
  1  5  1    5.5000000
  1  5  154    5.5000000
  1  6  1    5.5000000
  1  6  154    5.5000000
  1  7  1    5.5000000
  1  7  154    5.5000000
  1  8  1    5.5000000
  1  8  154    5.5000000
  1  9  1    5.5000000
  1  9  154    5.5000000
  1  10  1    5.5000000
  1  10  154    5.5000000
  1  11  1    5.5000000
  1  11  154    5.5000000
  1  12  1    5.5000000
  1  12  154    5.5000000
  1  13  1    5.5000000
  1  13  154    5.5000000
  1  14  1    5.5000000
  1  14  154    5.5000000
  1  15  1    5.5000000
  1  15  154    5.5000000
  1  16  1    5.5000000
  1  16  154    5.5000000
  1  17  1    5.5000000
  1  17  154    5.5000000
  1  18  1    5.5000000
  1  18  154    5.5000000
  1  19  1    5.5000000
  1  19  154    5.5000000
  1  20  1    5.5000000
  1  20  154    5.5000000
  1  21  1    5.5000000
  1  21  154    5.5000000
  1  22  1    5.5000000
  1  22  154    5.5000000
  1  23  1    5.5000000
  1  23  154    5.5000000
  1  24  1    5.5000000
  1  24  154    5.5000000
  1  25  1    5.5000000
  1  25  154    5.5000000
  1  26  1    5.5000000
  1  26  154    5.5000000
  1  27  1    5.5000000
  1  27  154    5.5000000
  1  28  1    5.5000000
  1  28  154    5.5000000
  1  29  1    5.5000000
  1  29  154    5.5000000
  1  30  1    5.5000000
  1  30  154    5.5000000
  1  31  1    5.5000000
  1  31  154    5.5000000
  1  32  1    5.5000000
  1  32  154    5.5000000
  1  33  1    5.5000000
  1  33  154    5.5000000
  1  34  1    5.5000000
  1  34  154    5.5000000
  1  35  1    5.5000000
  1  35  154    5.5000000
  1  36  1    5.5000000
  1  36  154    5.5000000
  1  37  1    5.5000000
  1  37  154    5.5000000
  1  38  1    5.5000000
  1  38  154    5.5000000
  1  39  1    5.5000000
  1  39  154    5.5000000
  1  40  1    5.5000000
  1  40  154    5.5000000
  1  41  1    5.5000000
  1  41  154    5.5000000
  1  42  1    5.5000000
  1  42  154    5.5000000
  1  43  1    5.5000000
  1  43  154    5.5000000
  1  44  1    5.5000000
  1  44  154    5.5000000
  1  45  1    5.5000000
  1  45  154    5.5000000
  1  46  1    5.5000000
  1  46  154    5.5000000
  1  47  1    5.5000000
  1  47  154    5.5000000
  1  48  1    5.5000000
  1  48  154    5.5000000
  1  49  1    5.5000000
  1  49  154    5.5000000
  1  50  1    5.5000000
  1  50  154    5.5000000
  1  51  1    5.5000000
  1  51  154    5.5000000
  1  52  1    5.5000000
  1  52  154    5.5000000
  1  53  1    5.5000000
  1  53  154    5.5000000
  1  54  1    5.5000000
  1  54  154    5.5000000
  1  55  1    5.5000000
  1  55  154    5.5000000
  1  56  1    5.5000000
  1  56  154    5.5000000
  1  57  1    5.5000000
  1  57  154    5.5000000
  1  58  1    5.5000000
  1  58  154    5.5000000
  1  59  1    5.5000000
  1  59  154    5.5000000
  1  60  1    5.5000000
  1  60  154    5.5000000
  1  61  1    5.5000000
  1  61  154    5.5000000
  1  62  1    5.5000000
  1  62  154    5.5000000
  1  63  1    5.5000000
  1  63  154    5.5000000
  1  64  1    5.5000000
  1  64  154    5.5000000
  1  65  1    5.5000000
  1  65  154    5.5000000
  1  66  1    5.5000000
  1  66  154    5.5000000
  1  67  1    5.5000000
  1  67  154    5.5000000
  1  68  1    5.5000000
  1  68  154    5.5000000
  1  69  1    5.5000000
  1  69  154    5.5000000
  1  70  1    5.5000000
  1  70  154    5.5000000
  1  71  1    5.5000000
  1  71  154    5.5000000
  1  72  1    5.5000000
  1  72  154    5.5000000
  1  73  1    5.5000000
  1  73  154    5.5000000
  1  74  1    5.5000000
  1  74  154    5.5000000
  1  75  1    5.5000000
  1  75  154    5.5000000
  1  76  1    5.5000000
  1  76  154    5.5000000
  1  77  1    5.5000000
  1  77  154    5.5000000
  1  78  1    5.5000000
  1  78  154    5.5000000
  1  79  1    5.5000000
  1  79  154    5.5000000
  1  80  1    5.5000000
  1  80  154    5.5000000
  1  81  1    5.5000000
  1  81  154    5.5000000
  1  82  1    5.5000000
  1  82  154    5.5000000
  1  83  1    5.5000000
  1  83  154    5.5000000
  1  84  1    5.5000000
  1  84  154    5.5000000
  1  85  1    5.5000000
  1  85  154    5.5000000
  1  86  1    5.5000000
  1  86  154    5.5000000
  1  87  1    5.5000000
  1  87  154    5.5000000
  1  88  1    5.5000000
  1  88  154    5.5000000
  1  89  1    5.5000000
  1  89  154    5.5000000
  1  90  1    5.5000000
  1  90  154    5.5000000
  1  91  1    5.5000000
  1  91  154    5.5000000
  1  92  1    5.5000000
  1  92  154    5.5000000
  1  93  1    5.5000000
  1  93  154    5.5000000
  1  94  1    5.5000000
  1  94  154    5.5000000
  1  95  1    5.5000000
  1  95  154    5.5000000
  1  96  1    5.5000000
  1  96  154    5.5000000
  1  97  1    5.5000000
  1  97  154    5.5000000
  1  98  1    5.5000000
  1  98  154    5.5000000
  1  99  1    5.5000000
  1  99  154    5.5000000
  1  100  1    5.5000000
  1  100  2    5.5000000
  1  100  3    5.5000000
  1  100  4    5.5000000
  1  100  5    5.5000000
  1  100  6    5.5000000
  1  100  7    5.5000000
  1  100  8    5.5000000
  1  100  9    5.5000000
  1  100  10    5.5000000
  1  100  11    5.5000000
  1  100  12    5.5000000
  1  100  13    5.5000000
  1  100  14    5.5000000
  1  100  15    5.5000000
  1  100  16    5.5000000
  1  100  17    5.5000000
  1  100  18    5.5000000
  1  100  19    5.5000000
  1  100  20    5.5000000
  1  100  21    5.5000000
  1  100  22    5.5000000
  1  100  23    5.5000000
  1  100  24    5.5000000
  1  100  25    5.5000000
  1  100  26    5.5000000
  1  100  27    5.5000000
  1  100  28    5.5000000
  1  100  29    5.5000000
  1  100  30    5.5000000
  1  100  31    5.5000000
  1  100  32    5.5000000
  1  100  33    5.5000000
  1  100  34    5.5000000
  1  100  35    5.5000000
  1  100  36    5.5000000
  1  100  37    5.5000000
  1  100  38    5.5000000
  1  100  39    5.5000000
  1  100  40    5.5000000
  1  100  41    5.5000000
  1  100  42    5.5000000
  1  100  43    5.5000000
  1  100  44    5.5000000
  1  100  45    5.5000000
  1  100  46    5.5000000
  1  100  47    5.5000000
  1  100  48    5.5000000
  1  100  49    5.5000000
  1  100  50    5.5000000
  1  100  51    5.5000000
  1  100  52    5.5000000
  1  100  53    5.5000000
  1  100  54    5.5000000
  1  100  55    5.5000000
  1  100  56    5.5000000
  1  100  57    5.5000000
  1  100  58    5.5000000
  1  100  59    5.5000000
  1  100  60    5.5000000
  1  100  61    5.5000000
  1  100  62    5.5000000
  1  100  63    5.5000000
  1  100  64    5.5000000
  1  100  65    5.5000000
  1  100  66    5.5000000
  1  100  67    5.5000000
  1  100  68    5.5000000
  1  100  69    5.5000000
  1  100  70    5.5000000
  1  100  71    5.5000000
  1  100  72    5.5000000
  1  100  73    5.5000000
  1  100  74    5.5000000
  1  100  75    5.5000000
  1  100  76    5.5000000
  1  100  77    5.5000000
  1  100  78    5.5000000
  1  100  79    5.5000000
  1  100  80    5.5000000
  1  100  81    5.5000000
  1  100  82    5.5000000
  1  100  83    5.5000000
  1  100  84    5.5000000
  1  100  85    5.5000000
  1  100  86    5.5000000
  1  100  87    5.5000000
  1  100  88    5.5000000
  1  100  89    5.5000000
  1  100  90    5.5000000
  1  100  91    5.5000000
  1  100  92    5.5000000
  1  100  93    5.5000000
  1  100  94    5.5000000
  1  100  95    5.5000000
  1  100  96    5.5000000
  1  100  97    5.5000000
  1  100  98    5.5000000
  1  100  99    5.5000000
  1  100  100    5.5000000
  1  100  101    5.5000000
  1  100  102    5.5000000
  1  100  103    5.5000000
  1  100  104    5.5000000
  1  100  105    5.5000000
  1  100  106    5.5000000
  1  100  107    5.5000000
  1  100  108    5.5000000
  1  100  109    5.5000000
  1  100  110    5.5000000
  1  100  111    5.5000000
  1  100  112    5.5000000
  1  100  113    5.5000000
  1  100  114    5.5000000
  1  100  115    5.5000000
  1  100  116    5.5000000
  1  100  117    5.5000000
  1  100  118    5.5000000
  1  100  119    5.5000000
  1  100  120    5.5000000
  1  100  121    5.5000000
  1  100  122    5.5000000
  1  100  123    5.5000000
  1  100  124    5.5000000
  1  100  125    5.5000000
  1  100  126    5.5000000
  1  100  127    5.5000000
  1  100  128    5.5000000
  1  100  129    5.5000000
  1  100  130    5.5000000
  1  100  131    5.5000000
  1  100  132    5.5000000
  1  100  133    5.5000000
  1  100  134    5.5000000
  1  100  135    5.5000000
  1  100  136    5.5000000
  1  100  137    5.5000000
  1  100  138    5.5000000
  1  100  139    5.5000000
  1  100  140    5.5000000
  1  100  141    5.5000000
  1  100  142    5.5000000
  1  100  143    5.5000000
  1  100  144    5.5000000
  1  100  145    5.5000000
  1  100  146    5.5000000
  1  100  147    5.5000000
  1  100  148    5.5000000
  1  100  149    5.5000000
  1  100  150    5.5000000
  1  100  151    5.5000000
  1  100  152    5.5000000
  1  100  153    5.5000000
  1  100  154    5.5000000
END PERIOD
